          25

 H      0.00000000       0.00000000               1   0.00000000               1
 H      0.00000000       1.00000000               1   0.00000000               1
 H      0.00000000       2.00000000               1   0.00000000               1
 H      0.00000000       3.00000000               1   0.00000000               1
 H      0.00000000       4.00000000               1   0.00000000               1
 H      1.00000000       0.00000000               1   0.00000000               1
 H      1.00000000       1.00000000               1   0.00000000               1
 H      1.00000000       2.00000000               1   0.00000000               1
 H      1.00000000       3.00000000               1   0.00000000               1
 H      1.00000000       4.00000000               1   0.00000000               1
 H      2.00000000       0.00000000               1   0.00000000               1
 H      2.00000000       1.00000000               1   0.00000000               1
 H      2.00000000       2.00000000               1   0.00000000               1
 H      2.00000000       3.00000000               1   0.00000000               1
 H      2.00000000       4.00000000               1   0.00000000               1
 H      3.00000000       0.00000000               1   0.00000000               1
 H      3.00000000       1.00000000               1   0.00000000               1
 H      3.00000000       2.00000000               1   0.00000000               1
 H      3.00000000       3.00000000               1   0.00000000               1
 H      3.00000000       4.00000000               1   0.00000000               1
 H      4.00000000       0.00000000               1   0.00000000               1
 H      4.00000000       1.00000000               1   0.00000000               1
 H      4.00000000       2.00000000               1   0.00000000               1
 H      4.00000000       3.00000000               1   0.00000000               1
 H      4.00000000       4.00000000               1   0.00000000               1
